03_OpenDSS_Circuits/Bellhaven_Circuit_Opendss/Loads_SK.dss
New Load.258851432_1 Phases=1 Bus1=258851432.1 kV=7.2000 XFKVA=25.0 PF=0.9978 Vminpu=0.7
New Load.258839953_3 Phases=1 Bus1=258839953.3 kV=7.2000 XFKVA=10.0 PF=0.9993 Vminpu=0.7
New Load.258851160_1 Phases=1 Bus1=258851160.1 kV=7.2000 XFKVA=25.0 PF=0.9978 Vminpu=0.7
New Load.258840397_1 Phases=1 Bus1=258840397.1 kV=7.2000 XFKVA=37.5 PF=0.9978 Vminpu=0.7
New Load.258840397_2 Phases=1 Bus1=258840397.2 kV=7.2000 XFKVA=37.5 PF=0.9952 Vminpu=0.7
New Load.258840397_3 Phases=1 Bus1=258840397.3 kV=7.2000 XFKVA=37.5 PF=0.9993 Vminpu=0.7
New Load.260972091_1 Phases=1 Bus1=260972091.1 kV=7.2000 XFKVA=100.0 PF=0.9978 Vminpu=0.7
New Load.258851217_3 Phases=1 Bus1=258851217.3 kV=7.2000 XFKVA=25.0 PF=0.9993 Vminpu=0.7
New Load.259004984_3 Phases=1 Bus1=259004984.3 kV=7.2000 XFKVA=50.0 PF=0.9993 Vminpu=0.7
New Load.258840484_3 Phases=1 Bus1=258840484.3 kV=7.2000 XFKVA=25.0 PF=0.9993 Vminpu=0.7
New Load.258851034_1 Phases=1 Bus1=258851034.1 kV=7.2000 XFKVA=50.0 PF=0.9978 Vminpu=0.7
New Load.258851034_2 Phases=1 Bus1=258851034.2 kV=7.2000 XFKVA=50.0 PF=0.9952 Vminpu=0.7
New Load.258851034_3 Phases=1 Bus1=258851034.3 kV=7.2000 XFKVA=50.0 PF=0.9993 Vminpu=0.7
New Load.260745427_3 Phases=1 Bus1=260745427.3 kV=7.2000 XFKVA=75.0 PF=0.9993 Vminpu=0.7
New Load.258839926_1 Phases=1 Bus1=258839926.1 kV=7.2000 XFKVA=25.0 PF=0.9978 Vminpu=0.7
New Load.259005051_2 Phases=1 Bus1=259005051.2 kV=7.2000 XFKVA=10.0 PF=0.9952 Vminpu=0.7
New Load.260784230_1 Phases=1 Bus1=260784230.1 kV=7.2000 XFKVA=50.0 PF=0.9978 Vminpu=0.7
New Load.260784230_2 Phases=1 Bus1=260784230.2 kV=7.2000 XFKVA=50.0 PF=0.9952 Vminpu=0.7
New Load.260784230_3 Phases=1 Bus1=260784230.3 kV=7.2000 XFKVA=50.0 PF=0.9993 Vminpu=0.7
New Load.258840122_2 Phases=1 Bus1=258840122.2 kV=7.2000 XFKVA=25.0 PF=0.9952 Vminpu=0.7
New Load.472684080_1 Phases=1 Bus1=472684080.1 kV=7.2000 XFKVA=250.0 PF=0.0000 Vminpu=0.7
New Load.472684080_2 Phases=1 Bus1=472684080.2 kV=7.2000 XFKVA=250.0 PF=0.0000 Vminpu=0.7
New Load.472684080_3 Phases=1 Bus1=472684080.3 kV=7.2000 XFKVA=250.0 PF=0.0000 Vminpu=0.7
New Load.258839985_1 Phases=1 Bus1=258839985.1 kV=7.2000 XFKVA=25.0 PF=0.9978 Vminpu=0.7
New Load.258839985_2 Phases=1 Bus1=258839985.2 kV=7.2000 XFKVA=25.0 PF=0.9952 Vminpu=0.7
New Load.258839985_3 Phases=1 Bus1=258839985.3 kV=7.2000 XFKVA=25.0 PF=0.9993 Vminpu=0.7
New Load.260745487_1 Phases=1 Bus1=260745487.1 kV=7.2000 XFKVA=250.0 PF=0.8500 Vminpu=0.7
New Load.260745487_2 Phases=1 Bus1=260745487.2 kV=7.2000 XFKVA=250.0 PF=0.8500 Vminpu=0.7
New Load.260745487_3 Phases=1 Bus1=260745487.3 kV=7.2000 XFKVA=250.0 PF=0.8500 Vminpu=0.7
New Load.259121515_1 Phases=1 Bus1=259121515.1 kV=7.2000 XFKVA=15.0 PF=0.9978 Vminpu=0.7
New Load.259121515_2 Phases=1 Bus1=259121515.2 kV=7.2000 XFKVA=15.0 PF=0.9952 Vminpu=0.7
New Load.259121515_3 Phases=1 Bus1=259121515.3 kV=7.2000 XFKVA=15.0 PF=0.9993 Vminpu=0.7
New Load.258840195_3 Phases=1 Bus1=258840195.3 kV=7.2000 XFKVA=50.0 PF=0.9993 Vminpu=0.7
New Load.261124294_1 Phases=1 Bus1=261124294.1 kV=7.2000 XFKVA=50.0 PF=0.9978 Vminpu=0.7
New Load.261124294_2 Phases=1 Bus1=261124294.2 kV=7.2000 XFKVA=50.0 PF=0.9952 Vminpu=0.7
New Load.261124294_3 Phases=1 Bus1=261124294.3 kV=7.2000 XFKVA=50.0 PF=0.9993 Vminpu=0.7
New Load.258851318_1 Phases=1 Bus1=258851318.1 kV=7.2000 XFKVA=75.0 PF=0.9978 Vminpu=0.7
New Load.258851318_2 Phases=1 Bus1=258851318.2 kV=7.2000 XFKVA=75.0 PF=0.9952 Vminpu=0.7
New Load.258851318_3 Phases=1 Bus1=258851318.3 kV=7.2000 XFKVA=75.0 PF=0.9993 Vminpu=0.7
New Load.260784285_3 Phases=1 Bus1=260784285.3 kV=7.2000 XFKVA=50.0 PF=0.9993 Vminpu=0.7
New Load.258840366_1 Phases=1 Bus1=258840366.1 kV=7.2000 XFKVA=25.0 PF=0.9978 Vminpu=0.7
New Load.258840366_2 Phases=1 Bus1=258840366.2 kV=7.2000 XFKVA=25.0 PF=0.9952 Vminpu=0.7
New Load.258840366_3 Phases=1 Bus1=258840366.3 kV=7.2000 XFKVA=25.0 PF=0.9993 Vminpu=0.7
New Load.258850544_1 Phases=1 Bus1=258850544.1 kV=7.2000 XFKVA=10.0 PF=0.9978 Vminpu=0.7
New Load.258850544_2 Phases=1 Bus1=258850544.2 kV=7.2000 XFKVA=10.0 PF=0.9952 Vminpu=0.7
New Load.258850544_3 Phases=1 Bus1=258850544.3 kV=7.2000 XFKVA=10.0 PF=0.9993 Vminpu=0.7
New Load.258851377_1 Phases=1 Bus1=258851377.1 kV=7.2000 XFKVA=25.0 PF=0.9978 Vminpu=0.7
New Load.258839859_2 Phases=1 Bus1=258839859.2 kV=7.2000 XFKVA=25.0 PF=0.9952 Vminpu=0.7
New Load.259357184_1 Phases=1 Bus1=259357184.1 kV=7.2000 XFKVA=1534.0 PF=0.8500 Vminpu=0.7
New Load.259357184_2 Phases=1 Bus1=259357184.2 kV=7.2000 XFKVA=1533.0 PF=0.8500 Vminpu=0.7
New Load.259357184_3 Phases=1 Bus1=259357184.3 kV=7.2000 XFKVA=1533.0 PF=0.8500 Vminpu=0.7
New Load.258840132_1 Phases=1 Bus1=258840132.1 kV=7.2000 XFKVA=25.0 PF=0.9978 Vminpu=0.7
New Load.258840132_2 Phases=1 Bus1=258840132.2 kV=7.2000 XFKVA=25.0 PF=0.9952 Vminpu=0.7
New Load.258840132_3 Phases=1 Bus1=258840132.3 kV=7.2000 XFKVA=25.0 PF=0.9993 Vminpu=0.7
New Load.472683966_1 Phases=1 Bus1=472683966.1 kV=7.2000 XFKVA=166.7 PF=0.0000 Vminpu=0.7
New Load.472683966_2 Phases=1 Bus1=472683966.2 kV=7.2000 XFKVA=166.7 PF=0.0000 Vminpu=0.7
New Load.472683966_3 Phases=1 Bus1=472683966.3 kV=7.2000 XFKVA=166.7 PF=0.0000 Vminpu=0.7
New Load.260745312_1 Phases=1 Bus1=260745312.1 kV=7.2000 XFKVA=250.0 PF=0.8500 Vminpu=0.7
New Load.260745312_2 Phases=1 Bus1=260745312.2 kV=7.2000 XFKVA=250.0 PF=0.8500 Vminpu=0.7
New Load.260745312_3 Phases=1 Bus1=260745312.3 kV=7.2000 XFKVA=250.0 PF=0.8500 Vminpu=0.7
New Load.261002770_1 Phases=1 Bus1=261002770.1 kV=7.2000 XFKVA=50.0 PF=0.9978 Vminpu=0.7
New Load.258840439_3 Phases=1 Bus1=258840439.3 kV=7.2000 XFKVA=25.0 PF=0.9993 Vminpu=0.7
New Load.260972111_3 Phases=1 Bus1=260972111.3 kV=7.2000 XFKVA=50.0 PF=0.9993 Vminpu=0.7
New Load.260972080_3 Phases=1 Bus1=260972080.3 kV=7.2000 XFKVA=100.0 PF=0.9993 Vminpu=0.7
New Load.258850680_1 Phases=1 Bus1=258850680.1 kV=7.2000 XFKVA=10.0 PF=0.9978 Vminpu=0.7
New Load.258850680_2 Phases=1 Bus1=258850680.2 kV=7.2000 XFKVA=10.0 PF=0.9952 Vminpu=0.7
New Load.258850680_3 Phases=1 Bus1=258850680.3 kV=7.2000 XFKVA=10.0 PF=0.9993 Vminpu=0.7
New Load.260745397_1 Phases=1 Bus1=260745397.1 kV=7.2000 XFKVA=250.0 PF=0.8500 Vminpu=0.7
New Load.260745397_2 Phases=1 Bus1=260745397.2 kV=7.2000 XFKVA=250.0 PF=0.8500 Vminpu=0.7
New Load.260745397_3 Phases=1 Bus1=260745397.3 kV=7.2000 XFKVA=250.0 PF=0.8500 Vminpu=0.7
New Load.258850754_1 Phases=1 Bus1=258850754.1 kV=7.2000 XFKVA=75.0 PF=0.9978 Vminpu=0.7
New Load.258850754_2 Phases=1 Bus1=258850754.2 kV=7.2000 XFKVA=75.0 PF=0.9952 Vminpu=0.7
New Load.258850754_3 Phases=1 Bus1=258850754.3 kV=7.2000 XFKVA=75.0 PF=0.9993 Vminpu=0.7
New Load.260784240_1 Phases=1 Bus1=260784240.1 kV=7.2000 XFKVA=833.3 PF=0.8500 Vminpu=0.7
New Load.260784240_2 Phases=1 Bus1=260784240.2 kV=7.2000 XFKVA=833.3 PF=0.8500 Vminpu=0.7
New Load.260784240_3 Phases=1 Bus1=260784240.3 kV=7.2000 XFKVA=833.3 PF=0.8500 Vminpu=0.7
New Load.260972141_2 Phases=1 Bus1=260972141.2 kV=7.2000 XFKVA=50.0 PF=0.9952 Vminpu=0.7
New Load.261002705_2 Phases=1 Bus1=261002705.2 kV=7.2000 XFKVA=50.0 PF=0.9952 Vminpu=0.7
New Load.260745334_1 Phases=1 Bus1=260745334.1 kV=7.2000 XFKVA=250.0 PF=0.0000 Vminpu=0.7
New Load.260745334_2 Phases=1 Bus1=260745334.2 kV=7.2000 XFKVA=250.0 PF=0.0000 Vminpu=0.7
New Load.260745334_3 Phases=1 Bus1=260745334.3 kV=7.2000 XFKVA=250.0 PF=0.0000 Vminpu=0.7
New Load.258840383_1 Phases=1 Bus1=258840383.1 kV=7.2000 XFKVA=50.0 PF=0.9978 Vminpu=0.7
New Load.258851365_1 Phases=1 Bus1=258851365.1 kV=7.2000 XFKVA=50.0 PF=0.9978 Vminpu=0.7
New Load.260784310_3 Phases=1 Bus1=260784310.3 kV=7.2000 XFKVA=50.0 PF=0.9993 Vminpu=0.7
New Load.258850581_1 Phases=1 Bus1=258850581.1 kV=7.2000 XFKVA=25.0 PF=0.9978 Vminpu=0.7
New Load.258850581_2 Phases=1 Bus1=258850581.2 kV=7.2000 XFKVA=25.0 PF=0.9952 Vminpu=0.7
New Load.258850581_3 Phases=1 Bus1=258850581.3 kV=7.2000 XFKVA=25.0 PF=0.9993 Vminpu=0.7
New Load.261124314_1 Phases=1 Bus1=261124314.1 kV=7.2000 XFKVA=250.0 PF=0.0000 Vminpu=0.7
New Load.261124314_2 Phases=1 Bus1=261124314.2 kV=7.2000 XFKVA=250.0 PF=0.0000 Vminpu=0.7
New Load.261124314_3 Phases=1 Bus1=261124314.3 kV=7.2000 XFKVA=250.0 PF=0.0000 Vminpu=0.7
New Load.260745402_1 Phases=1 Bus1=260745402.1 kV=7.2000 XFKVA=100.0 PF=0.8500 Vminpu=0.7
New Load.260745402_2 Phases=1 Bus1=260745402.2 kV=7.2000 XFKVA=100.0 PF=0.8500 Vminpu=0.7
New Load.260745402_3 Phases=1 Bus1=260745402.3 kV=7.2000 XFKVA=100.0 PF=0.8500 Vminpu=0.7
New Load.258851244_3 Phases=1 Bus1=258851244.3 kV=7.2000 XFKVA=25.0 PF=0.9993 Vminpu=0.7
New Load.260745494_1 Phases=1 Bus1=260745494.1 kV=7.2000 XFKVA=250.0 PF=0.8500 Vminpu=0.7
New Load.260745494_2 Phases=1 Bus1=260745494.2 kV=7.2000 XFKVA=250.0 PF=0.8500 Vminpu=0.7
New Load.260745494_3 Phases=1 Bus1=260745494.3 kV=7.2000 XFKVA=250.0 PF=0.8500 Vminpu=0.7
New Load.260972105_1 Phases=1 Bus1=260972105.1 kV=7.2000 XFKVA=100.0 PF=0.9978 Vminpu=0.7
New Load.258851009_1 Phases=1 Bus1=258851009.1 kV=7.2000 XFKVA=50.0 PF=0.9978 Vminpu=0.7
New Load.258851009_2 Phases=1 Bus1=258851009.2 kV=7.2000 XFKVA=50.0 PF=0.9952 Vminpu=0.7
New Load.258851009_3 Phases=1 Bus1=258851009.3 kV=7.2000 XFKVA=50.0 PF=0.9993 Vminpu=0.7
New Load.261123019_1 Phases=1 Bus1=261123019.1 kV=7.2000 XFKVA=50.0 PF=0.9978 Vminpu=0.7
New Load.261123019_2 Phases=1 Bus1=261123019.2 kV=7.2000 XFKVA=50.0 PF=0.9952 Vminpu=0.7
New Load.261123019_3 Phases=1 Bus1=261123019.3 kV=7.2000 XFKVA=50.0 PF=0.9993 Vminpu=0.7
New Load.258851283_1 Phases=1 Bus1=258851283.1 kV=7.2000 XFKVA=25.0 PF=0.9978 Vminpu=0.7
New Load.258851283_2 Phases=1 Bus1=258851283.2 kV=7.2000 XFKVA=25.0 PF=0.9952 Vminpu=0.7
New Load.258851283_3 Phases=1 Bus1=258851283.3 kV=7.2000 XFKVA=25.0 PF=0.9993 Vminpu=0.7
New Load.259005104_3 Phases=1 Bus1=259005104.3 kV=7.2000 XFKVA=25.0 PF=0.9993 Vminpu=0.7
New Load.258840005_2 Phases=1 Bus1=258840005.2 kV=7.2000 XFKVA=10.0 PF=0.9952 Vminpu=0.7
New Load.258840398_3 Phases=1 Bus1=258840398.3 kV=7.2000 XFKVA=25.0 PF=0.9993 Vminpu=0.7
New Load.261311161_1 Phases=1 Bus1=261311161.1 kV=7.2000 XFKVA=500.0 PF=0.8500 Vminpu=0.7
New Load.261311161_2 Phases=1 Bus1=261311161.2 kV=7.2000 XFKVA=500.0 PF=0.8500 Vminpu=0.7
New Load.261311161_3 Phases=1 Bus1=261311161.3 kV=7.2000 XFKVA=500.0 PF=0.8500 Vminpu=0.7
New Load.258840017_1 Phases=1 Bus1=258840017.1 kV=7.2000 XFKVA=25.0 PF=0.9978 Vminpu=0.7
New Load.260972090_1 Phases=1 Bus1=260972090.1 kV=7.2000 XFKVA=75.0 PF=0.9978 Vminpu=0.7
New Load.258851108_2 Phases=1 Bus1=258851108.2 kV=7.2000 XFKVA=25.0 PF=0.9952 Vminpu=0.7
New Load.260784260_3 Phases=1 Bus1=260784260.3 kV=7.2000 XFKVA=75.0 PF=0.9993 Vminpu=0.7
New Load.258839854_3 Phases=1 Bus1=258839854.3 kV=7.2000 XFKVA=10.0 PF=0.9993 Vminpu=0.7
New Load.258839854_1 Phases=1 Bus1=258839854.1 kV=7.2000 XFKVA=10.0 PF=0.9978 Vminpu=0.7
New Load.258839854_2 Phases=1 Bus1=258839854.2 kV=7.2000 XFKVA=10.0 PF=0.9952 Vminpu=0.7
New Load.258840262_3 Phases=1 Bus1=258840262.3 kV=7.2000 XFKVA=10.0 PF=0.9993 Vminpu=0.7
New Load.258840302_2 Phases=1 Bus1=258840302.2 kV=7.2000 XFKVA=10.0 PF=0.9952 Vminpu=0.7
New Load.258850715_2 Phases=1 Bus1=258850715.2 kV=7.2000 XFKVA=10.0 PF=0.9952 Vminpu=0.7
New Load.258840413_3 Phases=1 Bus1=258840413.3 kV=7.2000 XFKVA=25.0 PF=0.9993 Vminpu=0.7
New Load.259121514_3 Phases=1 Bus1=259121514.3 kV=7.2000 XFKVA=25.0 PF=0.9993 Vminpu=0.7
New Load.258851273_1 Phases=1 Bus1=258851273.1 kV=7.2000 XFKVA=50.0 PF=0.9978 Vminpu=0.7
New Load.258851273_2 Phases=1 Bus1=258851273.2 kV=7.2000 XFKVA=50.0 PF=0.9952 Vminpu=0.7
New Load.258851273_3 Phases=1 Bus1=258851273.3 kV=7.2000 XFKVA=50.0 PF=0.9993 Vminpu=0.7
New Load.261124288_1 Phases=1 Bus1=261124288.1 kV=7.2000 XFKVA=250.0 PF=0.0000 Vminpu=0.7
New Load.261124288_2 Phases=1 Bus1=261124288.2 kV=7.2000 XFKVA=250.0 PF=0.0000 Vminpu=0.7
New Load.261124288_3 Phases=1 Bus1=261124288.3 kV=7.2000 XFKVA=250.0 PF=0.0000 Vminpu=0.7
New Load.261002695_1 Phases=1 Bus1=261002695.1 kV=7.2000 XFKVA=50.0 PF=0.9978 Vminpu=0.7
New Load.260745412_1 Phases=1 Bus1=260745412.1 kV=7.2000 XFKVA=50.0 PF=0.9978 Vminpu=0.7
New Load.261031178_2 Phases=1 Bus1=261031178.2 kV=7.2000 XFKVA=50.0 PF=0.9952 Vminpu=0.7
New Load.261002700_1 Phases=1 Bus1=261002700.1 kV=7.2000 XFKVA=25.0 PF=0.9978 Vminpu=0.7
New Load.261031173_2 Phases=1 Bus1=261031173.2 kV=7.2000 XFKVA=50.0 PF=0.9952 Vminpu=0.7
New Load.258840516_3 Phases=1 Bus1=258840516.3 kV=7.2000 XFKVA=15.0 PF=0.9993 Vminpu=0.7
New Load.258851150_1 Phases=1 Bus1=258851150.1 kV=7.2000 XFKVA=25.0 PF=0.9978 Vminpu=0.7
New Load.258851138_3 Phases=1 Bus1=258851138.3 kV=7.2000 XFKVA=25.0 PF=0.9993 Vminpu=0.7
New Load.258851039_2 Phases=1 Bus1=258851039.2 kV=7.2000 XFKVA=15.0 PF=0.9952 Vminpu=0.7
New Load.258850770_1 Phases=1 Bus1=258850770.1 kV=7.2000 XFKVA=50.0 PF=0.9978 Vminpu=0.7
New Load.258850770_2 Phases=1 Bus1=258850770.2 kV=7.2000 XFKVA=50.0 PF=0.9952 Vminpu=0.7
New Load.258850770_3 Phases=1 Bus1=258850770.3 kV=7.2000 XFKVA=50.0 PF=0.9993 Vminpu=0.7
New Load.258850934_2 Phases=1 Bus1=258850934.2 kV=7.2000 XFKVA=100.0 PF=0.8500 Vminpu=0.7
New Load.258850934_3 Phases=1 Bus1=258850934.3 kV=7.2000 XFKVA=100.0 PF=0.8500 Vminpu=0.7
New Load.258850934_1 Phases=1 Bus1=258850934.1 kV=7.2000 XFKVA=100.0 PF=0.8500 Vminpu=0.7
New Load.258851466_1 Phases=1 Bus1=258851466.1 kV=7.2000 XFKVA=100.0 PF=0.8500 Vminpu=0.7
New Load.258851466_2 Phases=1 Bus1=258851466.2 kV=7.2000 XFKVA=100.0 PF=0.8500 Vminpu=0.7
New Load.258851466_3 Phases=1 Bus1=258851466.3 kV=7.2000 XFKVA=100.0 PF=0.8500 Vminpu=0.7
New Load.259005046_2 Phases=1 Bus1=259005046.2 kV=7.2000 XFKVA=50.0 PF=0.9952 Vminpu=0.7
New Load.260784275_3 Phases=1 Bus1=260784275.3 kV=7.2000 XFKVA=50.0 PF=0.9993 Vminpu=0.7
New Load.260745387_1 Phases=1 Bus1=260745387.1 kV=7.2000 XFKVA=75.0 PF=0.9978 Vminpu=0.7
New Load.260745387_2 Phases=1 Bus1=260745387.2 kV=7.2000 XFKVA=75.0 PF=0.9952 Vminpu=0.7
New Load.260745387_3 Phases=1 Bus1=260745387.3 kV=7.2000 XFKVA=75.0 PF=0.9993 Vminpu=0.7
New Load.260745447_1 Phases=1 Bus1=260745447.1 kV=7.2000 XFKVA=75.0 PF=0.9978 Vminpu=0.7
New Load.261002756_1 Phases=1 Bus1=261002756.1 kV=7.2000 XFKVA=50.0 PF=0.9978 Vminpu=0.7
New Load.258839943_1 Phases=1 Bus1=258839943.1 kV=7.2000 XFKVA=25.0 PF=0.9978 Vminpu=0.7
New Load.258839943_2 Phases=1 Bus1=258839943.2 kV=7.2000 XFKVA=25.0 PF=0.9952 Vminpu=0.7
New Load.258839943_3 Phases=1 Bus1=258839943.3 kV=7.2000 XFKVA=25.0 PF=0.9993 Vminpu=0.7
New Load.259005021_2 Phases=1 Bus1=259005021.2 kV=7.2000 XFKVA=10.0 PF=0.9952 Vminpu=0.7
New Load.259005031_1 Phases=1 Bus1=259005031.1 kV=7.2000 XFKVA=15.0 PF=0.9978 Vminpu=0.7
New Load.259005031_2 Phases=1 Bus1=259005031.2 kV=7.2000 XFKVA=15.0 PF=0.9952 Vminpu=0.7
New Load.259005031_3 Phases=1 Bus1=259005031.3 kV=7.2000 XFKVA=15.0 PF=0.9993 Vminpu=0.7
New Load.258850660_1 Phases=1 Bus1=258850660.1 kV=7.2000 XFKVA=50.0 PF=0.9978 Vminpu=0.7
New Load.258850660_2 Phases=1 Bus1=258850660.2 kV=7.2000 XFKVA=50.0 PF=0.9952 Vminpu=0.7
New Load.258850660_3 Phases=1 Bus1=258850660.3 kV=7.2000 XFKVA=50.0 PF=0.9993 Vminpu=0.7
New Load.258851348_3 Phases=1 Bus1=258851348.3 kV=7.2000 XFKVA=25.0 PF=0.9993 Vminpu=0.7
New Load.258851059_2 Phases=1 Bus1=258851059.2 kV=7.2000 XFKVA=25.0 PF=0.9952 Vminpu=0.7
New Load.260784245_3 Phases=1 Bus1=260784245.3 kV=7.2000 XFKVA=75.0 PF=0.9993 Vminpu=0.7
New Load.260745462_2 Phases=1 Bus1=260745462.2 kV=7.2000 XFKVA=75.0 PF=0.9952 Vminpu=0.7
New Load.260745417_3 Phases=1 Bus1=260745417.3 kV=7.2000 XFKVA=75.0 PF=0.9993 Vminpu=0.7
New Load.260972100_2 Phases=1 Bus1=260972100.2 kV=7.2000 XFKVA=50.0 PF=0.9952 Vminpu=0.7
New Load.258850953_1 Phases=1 Bus1=258850953.1 kV=7.2000 XFKVA=50.0 PF=0.9978 Vminpu=0.7
New Load.258850953_2 Phases=1 Bus1=258850953.2 kV=7.2000 XFKVA=50.0 PF=0.9952 Vminpu=0.7
New Load.258850953_3 Phases=1 Bus1=258850953.3 kV=7.2000 XFKVA=50.0 PF=0.9993 Vminpu=0.7
New Load.258850775_1 Phases=1 Bus1=258850775.1 kV=7.2000 XFKVA=50.0 PF=0.9978 Vminpu=0.7
New Load.258850775_2 Phases=1 Bus1=258850775.2 kV=7.2000 XFKVA=50.0 PF=0.9952 Vminpu=0.7
New Load.258850775_3 Phases=1 Bus1=258850775.3 kV=7.2000 XFKVA=50.0 PF=0.9993 Vminpu=0.7
New Load.258851113_2 Phases=1 Bus1=258851113.2 kV=7.2000 XFKVA=50.0 PF=0.9952 Vminpu=0.7
New Load.261124309_1 Phases=1 Bus1=261124309.1 kV=7.2000 XFKVA=250.0 PF=0.0000 Vminpu=0.7
New Load.261124309_2 Phases=1 Bus1=261124309.2 kV=7.2000 XFKVA=250.0 PF=0.0000 Vminpu=0.7
New Load.261124309_3 Phases=1 Bus1=261124309.3 kV=7.2000 XFKVA=250.0 PF=0.0000 Vminpu=0.7
New Load.260745407_1 Phases=1 Bus1=260745407.1 kV=7.2000 XFKVA=50.0 PF=0.9978 Vminpu=0.7
New Load.260745407_2 Phases=1 Bus1=260745407.2 kV=7.2000 XFKVA=50.0 PF=0.9952 Vminpu=0.7
New Load.260745407_3 Phases=1 Bus1=260745407.3 kV=7.2000 XFKVA=50.0 PF=0.9993 Vminpu=0.7
New Load.260784300_3 Phases=1 Bus1=260784300.3 kV=7.2000 XFKVA=50.0 PF=0.9993 Vminpu=0.7
New Load.259005065_2 Phases=1 Bus1=259005065.2 kV=7.2000 XFKVA=25.0 PF=0.9952 Vminpu=0.7
New Load.260784305_3 Phases=1 Bus1=260784305.3 kV=7.2000 XFKVA=50.0 PF=0.9993 Vminpu=0.7
New Load.261124323_1 Phases=1 Bus1=261124323.1 kV=7.2000 XFKVA=50.0 PF=0.9978 Vminpu=0.7
New Load.261124323_2 Phases=1 Bus1=261124323.2 kV=7.2000 XFKVA=50.0 PF=0.9952 Vminpu=0.7
New Load.261124323_3 Phases=1 Bus1=261124323.3 kV=7.2000 XFKVA=50.0 PF=0.9993 Vminpu=0.7
New Load.259004980_2 Phases=1 Bus1=259004980.2 kV=7.2000 XFKVA=50.0 PF=0.9952 Vminpu=0.7
New Load.259005002_1 Phases=1 Bus1=259005002.1 kV=7.2000 XFKVA=15.0 PF=0.9978 Vminpu=0.7
New Load.258850549_1 Phases=1 Bus1=258850549.1 kV=7.2000 XFKVA=50.0 PF=0.9978 Vminpu=0.7
New Load.258850549_2 Phases=1 Bus1=258850549.2 kV=7.2000 XFKVA=50.0 PF=0.9952 Vminpu=0.7
New Load.258850549_3 Phases=1 Bus1=258850549.3 kV=7.2000 XFKVA=50.0 PF=0.9993 Vminpu=0.7
New Load.258850924_1 Phases=1 Bus1=258850924.1 kV=7.2000 XFKVA=50.0 PF=0.9978 Vminpu=0.7
New Load.258850924_2 Phases=1 Bus1=258850924.2 kV=7.2000 XFKVA=50.0 PF=0.9952 Vminpu=0.7
New Load.258850924_3 Phases=1 Bus1=258850924.3 kV=7.2000 XFKVA=50.0 PF=0.9993 Vminpu=0.7
New Load.258851422_1 Phases=1 Bus1=258851422.1 kV=7.2000 XFKVA=25.0 PF=0.9978 Vminpu=0.7
New Load.258850989_1 Phases=1 Bus1=258850989.1 kV=7.2000 XFKVA=25.0 PF=0.9978 Vminpu=0.7
New Load.258850989_2 Phases=1 Bus1=258850989.2 kV=7.2000 XFKVA=25.0 PF=0.9952 Vminpu=0.7
New Load.258850989_3 Phases=1 Bus1=258850989.3 kV=7.2000 XFKVA=25.0 PF=0.9993 Vminpu=0.7
New Load.258840403_3 Phases=1 Bus1=258840403.3 kV=7.2000 XFKVA=50.0 PF=0.9993 Vminpu=0.7
New Load.261085133_1 Phases=1 Bus1=261085133.1 kV=7.2000 XFKVA=50.0 PF=0.9978 Vminpu=0.7
New Load.258851074_3 Phases=1 Bus1=258851074.3 kV=7.2000 XFKVA=75.0 PF=0.9993 Vminpu=0.7
New Load.258840149_1 Phases=1 Bus1=258840149.1 kV=7.2000 XFKVA=166.7 PF=0.0000 Vminpu=0.7
New Load.258840149_2 Phases=1 Bus1=258840149.2 kV=7.2000 XFKVA=166.7 PF=0.0000 Vminpu=0.7
New Load.258840149_3 Phases=1 Bus1=258840149.3 kV=7.2000 XFKVA=166.7 PF=0.0000 Vminpu=0.7
New Load.261085128_1 Phases=1 Bus1=261085128.1 kV=7.2000 XFKVA=50.0 PF=0.9978 Vminpu=0.7
New Load.259586301_3 Phases=1 Bus1=259586301.3 kV=7.2000 XFKVA=50.0 PF=0.9993 Vminpu=0.7
New Load.472684499_1 Phases=1 Bus1=472684499.1 kV=7.2000 XFKVA=50.0 PF=0.9978 Vminpu=0.7
New Load.472684499_2 Phases=1 Bus1=472684499.2 kV=7.2000 XFKVA=50.0 PF=0.9952 Vminpu=0.7
New Load.472684499_3 Phases=1 Bus1=472684499.3 kV=7.2000 XFKVA=50.0 PF=0.9993 Vminpu=0.7
New Load.258840467_1 Phases=1 Bus1=258840467.1 kV=7.2000 XFKVA=25.0 PF=0.9978 Vminpu=0.7
New Load.258840467_2 Phases=1 Bus1=258840467.2 kV=7.2000 XFKVA=25.0 PF=0.9952 Vminpu=0.7
New Load.258840467_3 Phases=1 Bus1=258840467.3 kV=7.2000 XFKVA=25.0 PF=0.9993 Vminpu=0.7
New Load.260972096_2 Phases=1 Bus1=260972096.2 kV=7.2000 XFKVA=50.0 PF=0.9952 Vminpu=0.7
New Load.258851024_2 Phases=1 Bus1=258851024.2 kV=7.2000 XFKVA=50.0 PF=0.9952 Vminpu=0.7
New Load.260745457_2 Phases=1 Bus1=260745457.2 kV=7.2000 XFKVA=75.0 PF=0.9952 Vminpu=0.7
New Load.258850994_2 Phases=1 Bus1=258850994.2 kV=7.2000 XFKVA=25.0 PF=0.9952 Vminpu=0.7
New Load.258851049_1 Phases=1 Bus1=258851049.1 kV=7.2000 XFKVA=50.0 PF=0.9978 Vminpu=0.7
New Load.261002746_1 Phases=1 Bus1=261002746.1 kV=7.2000 XFKVA=50.0 PF=0.9978 Vminpu=0.7
New Load.261002775_1 Phases=1 Bus1=261002775.1 kV=7.2000 XFKVA=50.0 PF=0.9978 Vminpu=0.7
New Load.258840365_3 Phases=1 Bus1=258840365.3 kV=7.2000 XFKVA=25.0 PF=0.9993 Vminpu=0.7
New Load.258851442_2 Phases=1 Bus1=258851442.2 kV=7.2000 XFKVA=25.0 PF=0.9952 Vminpu=0.7
New Load.258851488_1 Phases=1 Bus1=258851488.1 kV=7.2000 XFKVA=25.0 PF=0.9978 Vminpu=0.7
New Load.258851488_2 Phases=1 Bus1=258851488.2 kV=7.2000 XFKVA=25.0 PF=0.9952 Vminpu=0.7
New Load.258851488_3 Phases=1 Bus1=258851488.3 kV=7.2000 XFKVA=25.0 PF=0.9993 Vminpu=0.7
New Load.258851207_1 Phases=1 Bus1=258851207.1 kV=7.2000 XFKVA=10.0 PF=0.9978 Vminpu=0.7
New Load.258851207_2 Phases=1 Bus1=258851207.2 kV=7.2000 XFKVA=10.0 PF=0.9952 Vminpu=0.7
New Load.258851207_3 Phases=1 Bus1=258851207.3 kV=7.2000 XFKVA=10.0 PF=0.9993 Vminpu=0.7
New Load.258851417_1 Phases=1 Bus1=258851417.1 kV=7.2000 XFKVA=25.0 PF=0.9978 Vminpu=0.7
New Load.258850730_2 Phases=1 Bus1=258850730.2 kV=7.2000 XFKVA=10.0 PF=0.9952 Vminpu=0.7
New Load.258840551_3 Phases=1 Bus1=258840551.3 kV=7.2000 XFKVA=25.0 PF=0.9993 Vminpu=0.7
New Load.258851232_3 Phases=1 Bus1=258851232.3 kV=7.2000 XFKVA=50.0 PF=0.9993 Vminpu=0.7
New Load.260784225_1 Phases=1 Bus1=260784225.1 kV=7.2000 XFKVA=75.0 PF=0.9978 Vminpu=0.7
New Load.260784225_2 Phases=1 Bus1=260784225.2 kV=7.2000 XFKVA=75.0 PF=0.9952 Vminpu=0.7
New Load.260784225_3 Phases=1 Bus1=260784225.3 kV=7.2000 XFKVA=75.0 PF=0.9993 Vminpu=0.7
New Load.261002696_1 Phases=1 Bus1=261002696.1 kV=7.2000 XFKVA=50.0 PF=0.9978 Vminpu=0.7
New Load.258851407_2 Phases=1 Bus1=258851407.2 kV=7.2000 XFKVA=50.0 PF=0.9952 Vminpu=0.7
New Load.258851054_3 Phases=1 Bus1=258851054.3 kV=7.2000 XFKVA=10.0 PF=0.9993 Vminpu=0.7
New Load.258851084_2 Phases=1 Bus1=258851084.2 kV=7.2000 XFKVA=25.0 PF=0.9952 Vminpu=0.7
New Load.258851333_3 Phases=1 Bus1=258851333.3 kV=7.2000 XFKVA=50.0 PF=0.9993 Vminpu=0.7
New Load.258850948_1 Phases=1 Bus1=258850948.1 kV=7.2000 XFKVA=100.0 PF=0.0000 Vminpu=0.7
New Load.258850948_2 Phases=1 Bus1=258850948.2 kV=7.2000 XFKVA=100.0 PF=0.0000 Vminpu=0.7
New Load.258850948_3 Phases=1 Bus1=258850948.3 kV=7.2000 XFKVA=100.0 PF=0.0000 Vminpu=0.7
New Load.260745422_3 Phases=1 Bus1=260745422.3 kV=7.2000 XFKVA=75.0 PF=0.9993 Vminpu=0.7
New Load.259004973_2 Phases=1 Bus1=259004973.2 kV=7.2000 XFKVA=25.0 PF=0.9952 Vminpu=0.7
New Load.472684459_1 Phases=1 Bus1=472684459.1 kV=7.2000 XFKVA=75.0 PF=0.9978 Vminpu=0.7
New Load.472684459_2 Phases=1 Bus1=472684459.2 kV=7.2000 XFKVA=75.0 PF=0.9952 Vminpu=0.7
New Load.472684459_3 Phases=1 Bus1=472684459.3 kV=7.2000 XFKVA=75.0 PF=0.9993 Vminpu=0.7
New Load.258840052_1 Phases=1 Bus1=258840052.1 kV=7.2000 XFKVA=25.0 PF=0.9978 Vminpu=0.7
New Load.258840052_2 Phases=1 Bus1=258840052.2 kV=7.2000 XFKVA=25.0 PF=0.9952 Vminpu=0.7
New Load.258840052_3 Phases=1 Bus1=258840052.3 kV=7.2000 XFKVA=25.0 PF=0.9993 Vminpu=0.7
New Load.258840112_2 Phases=1 Bus1=258840112.2 kV=7.2000 XFKVA=25.0 PF=0.9952 Vminpu=0.7
New Load.258851313_1 Phases=1 Bus1=258851313.1 kV=7.2000 XFKVA=50.0 PF=0.9978 Vminpu=0.7
New Load.258851313_2 Phases=1 Bus1=258851313.2 kV=7.2000 XFKVA=50.0 PF=0.9952 Vminpu=0.7
New Load.258851313_3 Phases=1 Bus1=258851313.3 kV=7.2000 XFKVA=50.0 PF=0.9993 Vminpu=0.7
New Load.261031159_1 Phases=1 Bus1=261031159.1 kV=7.2000 XFKVA=100.0 PF=0.9978 Vminpu=0.7
New Load.258840307_2 Phases=1 Bus1=258840307.2 kV=7.2000 XFKVA=25.0 PF=0.9952 Vminpu=0.7
New Load.258840215_1 Phases=1 Bus1=258840215.1 kV=7.2000 XFKVA=10.0 PF=0.9978 Vminpu=0.7
New Load.258840215_2 Phases=1 Bus1=258840215.2 kV=7.2000 XFKVA=10.0 PF=0.9952 Vminpu=0.7
New Load.258840215_3 Phases=1 Bus1=258840215.3 kV=7.2000 XFKVA=10.0 PF=0.9993 Vminpu=0.7
New Load.258839916_1 Phases=1 Bus1=258839916.1 kV=7.2000 XFKVA=25.0 PF=0.9978 Vminpu=0.7
New Load.258839916_2 Phases=1 Bus1=258839916.2 kV=7.2000 XFKVA=25.0 PF=0.9952 Vminpu=0.7
New Load.258839916_3 Phases=1 Bus1=258839916.3 kV=7.2000 XFKVA=25.0 PF=0.9993 Vminpu=0.7
New Load.258840037_3 Phases=1 Bus1=258840037.3 kV=7.2000 XFKVA=5.0 PF=0.9993 Vminpu=0.7
New Load.258851185_1 Phases=1 Bus1=258851185.1 kV=7.2000 XFKVA=25.0 PF=0.9978 Vminpu=0.7
New Load.258850941_1 Phases=1 Bus1=258850941.1 kV=7.2000 XFKVA=25.0 PF=0.9978 Vminpu=0.7
New Load.258850941_2 Phases=1 Bus1=258850941.2 kV=7.2000 XFKVA=25.0 PF=0.9952 Vminpu=0.7
New Load.258850941_3 Phases=1 Bus1=258850941.3 kV=7.2000 XFKVA=25.0 PF=0.9993 Vminpu=0.7
New Load.260784265_3 Phases=1 Bus1=260784265.3 kV=7.2000 XFKVA=75.0 PF=0.9993 Vminpu=0.7
New Load.258851165_3 Phases=1 Bus1=258851165.3 kV=7.2000 XFKVA=25.0 PF=0.9993 Vminpu=0.7
New Load.260745306_1 Phases=1 Bus1=260745306.1 kV=7.2000 XFKVA=250.0 PF=0.8500 Vminpu=0.7
New Load.260745306_2 Phases=1 Bus1=260745306.2 kV=7.2000 XFKVA=250.0 PF=0.8500 Vminpu=0.7
New Load.260745306_3 Phases=1 Bus1=260745306.3 kV=7.2000 XFKVA=250.0 PF=0.8500 Vminpu=0.7
New Load.260784295_3 Phases=1 Bus1=260784295.3 kV=7.2000 XFKVA=50.0 PF=0.9993 Vminpu=0.7
New Load.260987679_1 Phases=1 Bus1=260987679.1 kV=7.2000 XFKVA=250.0 PF=0.0000 Vminpu=0.7
New Load.260987679_2 Phases=1 Bus1=260987679.2 kV=7.2000 XFKVA=250.0 PF=0.0000 Vminpu=0.7
New Load.260987679_3 Phases=1 Bus1=260987679.3 kV=7.2000 XFKVA=250.0 PF=0.0000 Vminpu=0.7
New Load.260745346_1 Phases=1 Bus1=260745346.1 kV=7.2000 XFKVA=666.7 PF=0.8500 Vminpu=0.7
New Load.260745346_2 Phases=1 Bus1=260745346.2 kV=7.2000 XFKVA=666.7 PF=0.8500 Vminpu=0.7
New Load.260745346_3 Phases=1 Bus1=260745346.3 kV=7.2000 XFKVA=666.7 PF=0.8500 Vminpu=0.7
New Load.261002710_2 Phases=1 Bus1=261002710.2 kV=7.2000 XFKVA=50.0 PF=0.9952 Vminpu=0.7
New Load.258851212_2 Phases=1 Bus1=258851212.2 kV=7.2000 XFKVA=25.0 PF=0.9952 Vminpu=0.7
New Load.258840531_3 Phases=1 Bus1=258840531.3 kV=7.2000 XFKVA=25.0 PF=0.9993 Vminpu=0.7
New Load.258840247_1 Phases=1 Bus1=258840247.1 kV=7.2000 XFKVA=25.0 PF=0.9978 Vminpu=0.7
New Load.260972085_3 Phases=1 Bus1=260972085.3 kV=7.2000 XFKVA=75.0 PF=0.9993 Vminpu=0.7
New Load.258851303_1 Phases=1 Bus1=258851303.1 kV=7.2000 XFKVA=25.0 PF=0.9978 Vminpu=0.7
New Load.258851303_2 Phases=1 Bus1=258851303.2 kV=7.2000 XFKVA=25.0 PF=0.9952 Vminpu=0.7
New Load.258851303_3 Phases=1 Bus1=258851303.3 kV=7.2000 XFKVA=25.0 PF=0.9993 Vminpu=0.7
New Load.260745472_3 Phases=1 Bus1=260745472.3 kV=7.2000 XFKVA=75.0 PF=0.9993 Vminpu=0.7
New Load.258851079_3 Phases=1 Bus1=258851079.3 kV=7.2000 XFKVA=25.0 PF=0.9993 Vminpu=0.7
New Load.261002761_1 Phases=1 Bus1=261002761.1 kV=7.2000 XFKVA=50.0 PF=0.9978 Vminpu=0.7
New Load.260972081_3 Phases=1 Bus1=260972081.3 kV=7.2000 XFKVA=50.0 PF=0.9993 Vminpu=0.7
New Load.260972116_3 Phases=1 Bus1=260972116.3 kV=7.2000 XFKVA=100.0 PF=0.9993 Vminpu=0.7
New Load.258840100_2 Phases=1 Bus1=258840100.2 kV=7.2000 XFKVA=50.0 PF=0.9952 Vminpu=0.7
New Load.258850965_1 Phases=1 Bus1=258850965.1 kV=7.2000 XFKVA=25.0 PF=0.9978 Vminpu=0.7
New Load.258850965_2 Phases=1 Bus1=258850965.2 kV=7.2000 XFKVA=25.0 PF=0.9952 Vminpu=0.7
New Load.258850965_3 Phases=1 Bus1=258850965.3 kV=7.2000 XFKVA=25.0 PF=0.9993 Vminpu=0.7
New Load.261002735_2 Phases=1 Bus1=261002735.2 kV=7.2000 XFKVA=50.0 PF=0.9952 Vminpu=0.7
New Load.260784290_3 Phases=1 Bus1=260784290.3 kV=7.2000 XFKVA=50.0 PF=0.9993 Vminpu=0.7
New Load.258840093_2 Phases=1 Bus1=258840093.2 kV=7.2000 XFKVA=25.0 PF=0.9952 Vminpu=0.7
New Load.258840093_3 Phases=1 Bus1=258840093.3 kV=7.2000 XFKVA=25.0 PF=0.9993 Vminpu=0.7
New Load.258840093_1 Phases=1 Bus1=258840093.1 kV=7.2000 XFKVA=25.0 PF=0.9978 Vminpu=0.7
New Load.260874526_3 Phases=1 Bus1=260874526.3 kV=7.2000 XFKVA=25.0 PF=0.9993 Vminpu=0.7
New Load.259545343_1 Phases=1 Bus1=259545343.1 kV=7.2000 XFKVA=25.0 PF=0.9978 Vminpu=0.7
New Load.259545343_2 Phases=1 Bus1=259545343.2 kV=7.2000 XFKVA=25.0 PF=0.9952 Vminpu=0.7
New Load.259545343_3 Phases=1 Bus1=259545343.3 kV=7.2000 XFKVA=25.0 PF=0.9993 Vminpu=0.7
New Load.258850665_2 Phases=1 Bus1=258850665.2 kV=7.2000 XFKVA=10.0 PF=0.9952 Vminpu=0.7
New Load.258851237_1 Phases=1 Bus1=258851237.1 kV=7.2000 XFKVA=25.0 PF=0.9978 Vminpu=0.7
New Load.258851237_2 Phases=1 Bus1=258851237.2 kV=7.2000 XFKVA=25.0 PF=0.9952 Vminpu=0.7
New Load.258851237_3 Phases=1 Bus1=258851237.3 kV=7.2000 XFKVA=25.0 PF=0.9993 Vminpu=0.7
New Load.260745437_2 Phases=1 Bus1=260745437.2 kV=7.2000 XFKVA=75.0 PF=0.9952 Vminpu=0.7
New Load.258851128_3 Phases=1 Bus1=258851128.3 kV=7.2000 XFKVA=25.0 PF=0.9993 Vminpu=0.7
New Load.258851288_1 Phases=1 Bus1=258851288.1 kV=7.2000 XFKVA=15.0 PF=0.9978 Vminpu=0.7
New Load.260972125_3 Phases=1 Bus1=260972125.3 kV=7.2000 XFKVA=50.0 PF=0.9993 Vminpu=0.7
New Load.260745432_2 Phases=1 Bus1=260745432.2 kV=7.2000 XFKVA=50.0 PF=0.9952 Vminpu=0.7
New Load.258851202_1 Phases=1 Bus1=258851202.1 kV=7.2000 XFKVA=10.0 PF=0.9978 Vminpu=0.7
New Load.258851202_2 Phases=1 Bus1=258851202.2 kV=7.2000 XFKVA=10.0 PF=0.9952 Vminpu=0.7
New Load.258851202_3 Phases=1 Bus1=258851202.3 kV=7.2000 XFKVA=10.0 PF=0.9993 Vminpu=0.7
New Load.261002751_1 Phases=1 Bus1=261002751.1 kV=7.2000 XFKVA=25.0 PF=0.9978 Vminpu=0.7
New Load.260745482_1 Phases=1 Bus1=260745482.1 kV=7.2000 XFKVA=500.0 PF=0.8500 Vminpu=0.7
New Load.260745482_2 Phases=1 Bus1=260745482.2 kV=7.2000 XFKVA=500.0 PF=0.8500 Vminpu=0.7
New Load.260745482_3 Phases=1 Bus1=260745482.3 kV=7.2000 XFKVA=500.0 PF=0.8500 Vminpu=0.7
New Load.258851308_1 Phases=1 Bus1=258851308.1 kV=7.2000 XFKVA=100.0 PF=0.9978 Vminpu=0.7
New Load.260745329_1 Phases=1 Bus1=260745329.1 kV=7.2000 XFKVA=50.0 PF=0.9978 Vminpu=0.7
New Load.260745329_2 Phases=1 Bus1=260745329.2 kV=7.2000 XFKVA=50.0 PF=0.9952 Vminpu=0.7
New Load.260745329_3 Phases=1 Bus1=260745329.3 kV=7.2000 XFKVA=50.0 PF=0.9993 Vminpu=0.7
New Load.261031154_1 Phases=1 Bus1=261031154.1 kV=7.2000 XFKVA=100.0 PF=0.9978 Vminpu=0.7
New Load.258850645_3 Phases=1 Bus1=258850645.3 kV=7.2000 XFKVA=25.0 PF=0.9993 Vminpu=0.7
New Load.258839911_1 Phases=1 Bus1=258839911.1 kV=7.2000 XFKVA=25.0 PF=0.9978 Vminpu=0.7
New Load.258839911_2 Phases=1 Bus1=258839911.2 kV=7.2000 XFKVA=25.0 PF=0.9952 Vminpu=0.7
New Load.258839911_3 Phases=1 Bus1=258839911.3 kV=7.2000 XFKVA=25.0 PF=0.9993 Vminpu=0.7
New Load.258840036_1 Phases=1 Bus1=258840036.1 kV=7.2000 XFKVA=10.0 PF=0.9978 Vminpu=0.7
New Load.258840036_2 Phases=1 Bus1=258840036.2 kV=7.2000 XFKVA=10.0 PF=0.9952 Vminpu=0.7
New Load.258840036_3 Phases=1 Bus1=258840036.3 kV=7.2000 XFKVA=10.0 PF=0.9993 Vminpu=0.7
New Load.258840430_3 Phases=1 Bus1=258840430.3 kV=7.2000 XFKVA=25.0 PF=0.9993 Vminpu=0.7
New Load.261002716_2 Phases=1 Bus1=261002716.2 kV=7.2000 XFKVA=50.0 PF=0.9952 Vminpu=0.7
New Load.261123020_1 Phases=1 Bus1=261123020.1 kV=7.2000 XFKVA=75.0 PF=0.9978 Vminpu=0.7
New Load.261123020_2 Phases=1 Bus1=261123020.2 kV=7.2000 XFKVA=75.0 PF=0.9952 Vminpu=0.7
New Load.261123020_3 Phases=1 Bus1=261123020.3 kV=7.2000 XFKVA=75.0 PF=0.9993 Vminpu=0.7
New Load.261085132_1 Phases=1 Bus1=261085132.1 kV=7.2000 XFKVA=25.0 PF=0.9978 Vminpu=0.7
New Load.258840154_3 Phases=1 Bus1=258840154.3 kV=7.2000 XFKVA=15.0 PF=0.9993 Vminpu=0.7
New Load.258840457_2 Phases=1 Bus1=258840457.2 kV=7.2000 XFKVA=25.0 PF=0.9952 Vminpu=0.7
New Load.469799524_3 Phases=1 Bus1=469799524.3 kV=7.2000 XFKVA=50.0 PF=0.9993 Vminpu=0.7
New Load.258851355_3 Phases=1 Bus1=258851355.3 kV=7.2000 XFKVA=50.0 PF=0.9993 Vminpu=0.7
New Load.258850569_1 Phases=1 Bus1=258850569.1 kV=7.2000 XFKVA=25.0 PF=0.9978 Vminpu=0.7
New Load.260784255_3 Phases=1 Bus1=260784255.3 kV=7.2000 XFKVA=75.0 PF=0.9993 Vminpu=0.7
New Load.258851382_1 Phases=1 Bus1=258851382.1 kV=7.2000 XFKVA=25.0 PF=0.9978 Vminpu=0.7
New Load.259005016_2 Phases=1 Bus1=259005016.2 kV=7.2000 XFKVA=15.0 PF=0.9952 Vminpu=0.7
New Load.258840032_3 Phases=1 Bus1=258840032.3 kV=7.2000 XFKVA=25.0 PF=0.9993 Vminpu=0.7
New Load.260745442_1 Phases=1 Bus1=260745442.1 kV=7.2000 XFKVA=75.0 PF=0.9978 Vminpu=0.7
New Load.261107771_1 Phases=1 Bus1=261107771.1 kV=7.2000 XFKVA=50.0 PF=0.9978 Vminpu=0.7
New Load.261137364_1 Phases=1 Bus1=261137364.1 kV=7.2000 XFKVA=75.0 PF=0.9978 Vminpu=0.7
New Load.258851402_2 Phases=1 Bus1=258851402.2 kV=7.2000 XFKVA=25.0 PF=0.9952 Vminpu=0.7
New Load.258840361_1 Phases=1 Bus1=258840361.1 kV=7.2000 XFKVA=149.0 PF=0.8500 Vminpu=0.7
New Load.258840361_2 Phases=1 Bus1=258840361.2 kV=7.2000 XFKVA=149.0 PF=0.8500 Vminpu=0.7
New Load.258840361_3 Phases=1 Bus1=258840361.3 kV=7.2000 XFKVA=148.0 PF=0.8500 Vminpu=0.7
New Load.260745392_1 Phases=1 Bus1=260745392.1 kV=7.2000 XFKVA=100.0 PF=0.8500 Vminpu=0.7
New Load.260745392_2 Phases=1 Bus1=260745392.2 kV=7.2000 XFKVA=100.0 PF=0.8500 Vminpu=0.7
New Load.260745392_3 Phases=1 Bus1=260745392.3 kV=7.2000 XFKVA=100.0 PF=0.8500 Vminpu=0.7
New Load.258840220_3 Phases=1 Bus1=258840220.3 kV=7.2000 XFKVA=25.0 PF=0.9993 Vminpu=0.7
New Load.258839876_2 Phases=1 Bus1=258839876.2 kV=7.2000 XFKVA=15.0 PF=0.9952 Vminpu=0.7
New Load.258840373_2 Phases=1 Bus1=258840373.2 kV=7.2000 XFKVA=50.0 PF=0.9952 Vminpu=0.7
New Load.260784250_3 Phases=1 Bus1=260784250.3 kV=7.2000 XFKVA=75.0 PF=0.9993 Vminpu=0.7
New Load.261124328_1 Phases=1 Bus1=261124328.1 kV=7.2000 XFKVA=50.0 PF=0.9978 Vminpu=0.7
New Load.261124328_2 Phases=1 Bus1=261124328.2 kV=7.2000 XFKVA=50.0 PF=0.9952 Vminpu=0.7
New Load.261124328_3 Phases=1 Bus1=261124328.3 kV=7.2000 XFKVA=50.0 PF=0.9993 Vminpu=0.7
New Load.258840137_1 Phases=1 Bus1=258840137.1 kV=7.2000 XFKVA=25.0 PF=0.9978 Vminpu=0.7
New Load.258840137_2 Phases=1 Bus1=258840137.2 kV=7.2000 XFKVA=25.0 PF=0.9952 Vminpu=0.7
New Load.258840137_3 Phases=1 Bus1=258840137.3 kV=7.2000 XFKVA=25.0 PF=0.9993 Vminpu=0.7
New Load.258851190_1 Phases=1 Bus1=258851190.1 kV=7.2000 XFKVA=10.0 PF=0.9978 Vminpu=0.7
New Load.258851190_2 Phases=1 Bus1=258851190.2 kV=7.2000 XFKVA=10.0 PF=0.9952 Vminpu=0.7
New Load.258851190_3 Phases=1 Bus1=258851190.3 kV=7.2000 XFKVA=10.0 PF=0.9993 Vminpu=0.7
New Load.258851387_1 Phases=1 Bus1=258851387.1 kV=7.2000 XFKVA=25.0 PF=0.9978 Vminpu=0.7
New Load.260745317_1 Phases=1 Bus1=260745317.1 kV=7.2000 XFKVA=50.0 PF=0.9978 Vminpu=0.7
New Load.260745317_2 Phases=1 Bus1=260745317.2 kV=7.2000 XFKVA=50.0 PF=0.9952 Vminpu=0.7
New Load.260745317_3 Phases=1 Bus1=260745317.3 kV=7.2000 XFKVA=50.0 PF=0.9993 Vminpu=0.7
New Load.261002726_2 Phases=1 Bus1=261002726.2 kV=7.2000 XFKVA=25.0 PF=0.9952 Vminpu=0.7
New Load.258851483_1 Phases=1 Bus1=258851483.1 kV=7.2000 XFKVA=25.0 PF=0.9978 Vminpu=0.7
New Load.258851483_2 Phases=1 Bus1=258851483.2 kV=7.2000 XFKVA=25.0 PF=0.9952 Vminpu=0.7
New Load.258851483_3 Phases=1 Bus1=258851483.3 kV=7.2000 XFKVA=25.0 PF=0.9993 Vminpu=0.7
New Load.260972095_2 Phases=1 Bus1=260972095.2 kV=7.2000 XFKVA=100.0 PF=0.9952 Vminpu=0.7
New Load.261002706_2 Phases=1 Bus1=261002706.2 kV=7.2000 XFKVA=50.0 PF=0.9952 Vminpu=0.7
New Load.261124289_1 Phases=1 Bus1=261124289.1 kV=7.2000 XFKVA=500.0 PF=0.0000 Vminpu=0.7
New Load.261124289_2 Phases=1 Bus1=261124289.2 kV=7.2000 XFKVA=500.0 PF=0.0000 Vminpu=0.7
New Load.261124289_3 Phases=1 Bus1=261124289.3 kV=7.2000 XFKVA=500.0 PF=0.0000 Vminpu=0.7
New Load.258850982_1 Phases=1 Bus1=258850982.1 kV=7.2000 XFKVA=75.0 PF=0.9978 Vminpu=0.7
New Load.258850982_2 Phases=1 Bus1=258850982.2 kV=7.2000 XFKVA=75.0 PF=0.9952 Vminpu=0.7
New Load.258850982_3 Phases=1 Bus1=258850982.3 kV=7.2000 XFKVA=75.0 PF=0.9993 Vminpu=0.7
New Load.260745322_1 Phases=1 Bus1=260745322.1 kV=7.2000 XFKVA=100.0 PF=0.8500 Vminpu=0.7
New Load.260745322_2 Phases=1 Bus1=260745322.2 kV=7.2000 XFKVA=100.0 PF=0.8500 Vminpu=0.7
New Load.260745322_3 Phases=1 Bus1=260745322.3 kV=7.2000 XFKVA=100.0 PF=0.8500 Vminpu=0.7
New Load.258840277_3 Phases=1 Bus1=258840277.3 kV=7.2000 XFKVA=25.0 PF=0.9993 Vminpu=0.7
New Load.261002721_2 Phases=1 Bus1=261002721.2 kV=7.2000 XFKVA=50.0 PF=0.9952 Vminpu=0.7
New Load.258840171_1 Phases=1 Bus1=258840171.1 kV=7.2000 XFKVA=25.0 PF=0.9978 Vminpu=0.7
New Load.258840171_2 Phases=1 Bus1=258840171.2 kV=7.2000 XFKVA=25.0 PF=0.9952 Vminpu=0.7
New Load.258840171_3 Phases=1 Bus1=258840171.3 kV=7.2000 XFKVA=25.0 PF=0.9993 Vminpu=0.7
New Load.258851328_3 Phases=1 Bus1=258851328.3 kV=7.2000 XFKVA=50.0 PF=0.9993 Vminpu=0.7
New Load.259172460_2 Phases=1 Bus1=259172460.2 kV=7.2000 XFKVA=25.0 PF=0.9952 Vminpu=0.7
New Load.259371842_1 Phases=1 Bus1=259371842.1 kV=7.2000 XFKVA=25.0 PF=0.9978 Vminpu=0.7
New Load.258840127_2 Phases=1 Bus1=258840127.2 kV=7.2000 XFKVA=25.0 PF=0.9952 Vminpu=0.7
New Load.258850554_1 Phases=1 Bus1=258850554.1 kV=7.2000 XFKVA=25.0 PF=0.9978 Vminpu=0.7
New Load.258850554_2 Phases=1 Bus1=258850554.2 kV=7.2000 XFKVA=25.0 PF=0.9952 Vminpu=0.7
New Load.258850554_3 Phases=1 Bus1=258850554.3 kV=7.2000 XFKVA=25.0 PF=0.9993 Vminpu=0.7
New Load.259223113_1 Phases=1 Bus1=259223113.1 kV=7.2000 XFKVA=15.0 PF=0.9978 Vminpu=0.7
New Load.260784280_3 Phases=1 Bus1=260784280.3 kV=7.2000 XFKVA=50.0 PF=0.9993 Vminpu=0.7
